RLRA-toSaveinexactSDPR/matpower5.1/case30.m

%% setting 1
function mpc = case30
%CASE30    Power flow data for 30 bus, 6 generator case.
%   Please see CASEFORMAT for details on the case file format.
%
%   Based on data from ...
%     Alsac, O. & Stott, B., "Optimal Load Flow with Steady State Security",
%     IEEE Transactions on Power Apparatus and Systems, Vol. PAS 93, No. 3,
%     1974, pp. 745-751.
%   ... with branch parameters rounded to nearest 0.01, shunt values divided
%   by 100 and shunt on bus 10 moved to bus 5, load at bus 5 zeroed out.
%   Generator locations, costs and limits and bus areas were taken from ...
%     Ferrero, R.W., Shahidehpour, S.M., Ramesh, V.C., "Transaction analysis
%     in deregulated power systems using game theory", IEEE Transactions on
%     Power Systems, Vol. 12, No. 3, Aug 1997, pp. 1340-1347.
%   Generator Q limits were derived from Alsac & Stott, using their Pmax
%   capacities. V limits and line |S| limits taken from Alsac & Stott.

%   MATPOWER
%   $Id: case30.m 2408 2014-10-22 20:41:33Z ray $

%% MATPOWER Case Format : Version 2
mpc.version = '2';

%%-----  Power Flow Data  -----%%
%% system MVA base
mpc.baseMVA = 100;

%% bus data
%	bus_i	type	Pd	Qd	Gs	Bs	area	Vm	Va	baseKV	zone	Vmax	Vmin
mpc.bus = [
	1	3	0	0	0	0	1	1	0	135	1	1.05	0.95;
	2	2	21.7	12.7	0	0	1	1	0	135	1	1.1	0.95;
	3	1	2.4	1.2	0	0	1	1	0	135	1	1.05	0.95;
	4	1	7.6	1.6	0	0	1	1	0	135	1	1.05	0.95;
	5	1	0	0	0	0.19	1	1	0	135	1	1.05	0.95;
	6	1	0	0	0	0	1	1	0	135	1	1.05	0.95;
	7	1	22.8	10.9	0	0	1	1	0	135	1	1.05	0.95;
	8	1	30	30	0	0	1	1	0	135	1	1.05	0.95;
	9	1	0	0	0	0	1	1	0	135	1	1.05	0.95;
	10	1	5.8	2	0	0	3	1	0	135	1	1.05	0.95;
	11	1	0	0	0	0	1	1	0	135	1	1.05	0.95;
	12	1	11.2	7.5	0	0	2	1	0	135	1	1.05	0.95;
	13	2	0	0	0	0	2	1	0	135	1	1.1	0.95;
	14	1	6.2	1.6	0	0	2	1	0	135	1	1.05	0.95;
	15	1	8.2	2.5	0	0	2	1	0	135	1	1.05	0.95;
	16	1	3.5	1.8	0	0	2	1	0	135	1	1.05	0.95;
	17	1	9	5.8	0	0	2	1	0	135	1	1.05	0.95;
	18	1	3.2	0.9	0	0	2	1	0	135	1	1.05	0.95;
	19	1	9.5	3.4	0	0	2	1	0	135	1	1.05	0.95;
	20	1	2.2	0.7	0	0	2	1	0	135	1	1.05	0.95;
	21	1	17.5	11.2	0	0	3	1	0	135	1	1.05	0.95;
	22	2	0	0	0	0	3	1	0	135	1	1.1	0.95;
	23	2	3.2	1.6	0	0	2	1	0	135	1	1.1	0.95;
	24	1	8.7	6.7	0	0.04	3	1	0	135	1	1.05	0.95;
	25	1	0	0	0	0	3	1	0	135	1	1.05	0.95;
	26	1	3.5	2.3	0	0	3	1	0	135	1	1.05	0.95;
	27	2	0	0	0	0	3	1	0	135	1	1.1	0.95;
	28	1	0	0	0	0	1	1	0	135	1	1.05	0.95;
	29	1	2.4	0.9	0	0	3	1	0	135	1	1.05	0.95;
	30	1	10.6	1.9	0	0	3	1	0	135	1	1.05	0.95;
];

%% generator data
%	bus	Pg	Qg	Qmax	Qmin	Vg	mBase	status	Pmax	Pmin	Pc1	Pc2	Qc1min	Qc1max	Qc2min	Qc2max	ramp_agc	ramp_10	ramp_30	ramp_q	apf
mpc.gen = [
	1	23.54	0	150	-20	1	100	1	80	0	0	0	0	0	0	0	0	0	0	0	0;
	2	60.97	0	60	-20	1	100	1	80	0	0	0	0	0	0	0	0	0	0	0	0;
	22	21.59	0	62.5	-15	1	100	1	50	0	0	0	0	0	0	0	0	0	0	0	0;
	27	26.91	0	48.7	-15	1	100	1	55	0	0	0	0	0	0	0	0	0	0	0	0;
	23	19.2	0	40	-10	1	100	1	30	0	0	0	0	0	0	0	0	0	0	0	0;
	13	37	0	44.7	-15	1	100	1	40	0	0	0	0	0	0	0	0	0	0	0	0;
];

%% branch data
%	fbus	tbus	r	x	b	rateA	rateB	rateC	ratio	angle	status	angmin	angmax
mpc.branch = [
	1	2	0.0192	0.0575	0.0264	130	130	130	0	0	1	-360	360;
	1	3	0.0452	0.1852	0.0204	130	130	130	0	0	1	-360	360;
	2	4	0.0570	0.1737	0.0184	65	65	65	0	0	1	-360	360;
	3	4	0.0132	0.379	0.0042	130	130	130	0	0	1	-360	360;
	2	5	0.0472	0.1983	0.0209	130	130	130	0	0	1	-360	360;
	2	6	0.0581	0.1763	0.0187	65	65	65	0	0	1	-360	360;
	4	6	0.0119	0.0414	0.0045	90	90	90	0	0	1	-360	360;
	5	7	0.0460	0.1160	0.0102	70	70	70	0	0	1	-360	360;
	6	7	0.0267	0.0820	0.0085	130	130	130	0	0	1	-360	360;
	6	8	0.012	0.042	0.0045	32	32	32	0	0	1	-360	360;
	6	9	0	0.208	0	65	65	65	0	0	1	-360	360;
	6	10	0	0.556	0	32	32	32	0	0	1	-360	360;
	9	11	0	0.208	0	65	65	65	0	0	1	-360	360;
	9	10	0	0.11	0	65	65	65	0	0	1	-360	360;
	4	12	0	0.256	0	65	65	65	0	0	1	-360	360;
	12	13	0	0.14	0	65	65	65	0	0	1	-360	360;
	12	14	0.1231	0.2559	0	32	32	32	0	0	1	-360	360;
	12	15	0.0662	0.1304	0	32	32	32	0	0	1	-360	360;
	12	16	0.0945	0.1987	0	32	32	32	0	0	1	-360	360;
	14	15	0.2210	0.1997	0	16	16	16	0	0	1	-360	360;
	16	17	0.0824	0.1932	0	16	16	16	0	0	1	-360	360;
	15	18	0.1070	0.2185	0	16	16	16	0	0	1	-360	360;
	18	19	0.0639	0.1292	0	16	16	16	0	0	1	-360	360;
	19	20	0.0340	0.068	0	32	32	32	0	0	1	-360	360;
	10	20	0.0936	0.209	0	32	32	32	0	0	1	-360	360;
	10	17	0.0324	0.0845	0	32	32	32	0	0	1	-360	360;
	10	21	0.0348	0.0749	0	32	32	32	0	0	1	-360	360;
	10	22	0.0727	0.1499	0	32	32	32	0	0	1	-360	360;
	21	22	0.0116	0.0236	0	32	32	32	0	0	1	-360	360;
	15	23	0.1	0.202	0	16	16	16	0	0	1	-360	360;
	22	24	0.115	0.179	0	16	16	16	0	0	1	-360	360;
	23	24	0.132	0.27	0	16	16	16	0	0	1	-360	360;
	24	25	0.1885	0.3292	0	16	16	16	0	0	1	-360	360;
	25	26	0.2544	0.38	0	16	16	16	0	0	1	-360	360;
	25	27	0.1093	0.2087	0	16	16	16	0	0	1	-360	360;
	28	27	0	0.3960	0	65	65	65	0	0	1	-360	360;
	27	29	0.2198	0.4153	0	16	16	16	0	0	1	-360	360;
	27	30	0.3202	0.6027	0	16	16	16	0	0	1	-360	360;
	29	30	0.2399	0.4533	0	16	16	16	0	0	1	-360	360;
	8	28	0.0636	0.2	0.0214	32	32	32	0	0	1	-360	360;
	6	28	0.0169	0.0599	0.0065	32	32	32	0	0	1	-360	360;
];

%%-----  OPF Data  -----%%
%% generator cost data
%	1	startup	shutdown	n	x1	y1	...	xn	yn
%	2	startup	shutdown	n	c(n-1)	...	c0
mpc.gencost = [
	2	0	0	2	2	0;
	2	0	0	2	1.75	0;
	2	0	0	2	1	0;
	2	0	0	2	3.25	0;
	2	0	0	2	3	0;
	2	0	0	2	3	0;
];
